*Heading
** 三维梁链非线性：120 个 B31 单元
*Part, name=BEAM_CHAIN
*Node
1, 0.000000, 0.0, 0.0
2, 0.100000, 0.0, 0.0
3, 0.200000, 0.0, 0.0
4, 0.300000, 0.0, 0.0
5, 0.400000, 0.0, 0.0
6, 0.500000, 0.0, 0.0
7, 0.600000, 0.0, 0.0
8, 0.700000, 0.0, 0.0
9, 0.800000, 0.0, 0.0
10, 0.900000, 0.0, 0.0
11, 1.000000, 0.0, 0.0
12, 1.100000, 0.0, 0.0
13, 1.200000, 0.0, 0.0
14, 1.300000, 0.0, 0.0
15, 1.400000, 0.0, 0.0
16, 1.500000, 0.0, 0.0
17, 1.600000, 0.0, 0.0
18, 1.700000, 0.0, 0.0
19, 1.800000, 0.0, 0.0
20, 1.900000, 0.0, 0.0
** ... 101 like lines cut
*Material, name=STEEL
*Elastic
2.1e11, 0.3
*Element, type=B31, elset=CHAIN
1, 1, 2
2, 2, 3
3, 3, 4
4, 4, 5
5, 5, 6
6, 6, 7
7, 7, 8
8, 8, 9
9, 9, 10
10, 10, 11
11, 11, 12
12, 12, 13
13, 13, 14
14, 14, 15
15, 15, 16
16, 16, 17
17, 17, 18
18, 18, 19
19, 19, 20
20, 20, 21
** ... 100 like lines cut
*Beam Section, elset=CHAIN, material=STEEL
8.0e-5
*End Part
*Boundary
1,1,6,0.0
*Cload
121,2,-8.0e4
*Step, name=BEAM_NL, nlgeom=YES
*Static
0.05, 1.0, 1e-4, 0.1
*Controls
40, 15, 4, 0.8, 1.2, 1e-4, 0.2
*Output, field, frequency=5
*End Step
