*Heading
** 双块压缩接触：C3D8 共 512 单元（接触+摩擦+非线性）
*Node
1, 0.000000, 0.000000, 0.000000
2, 0.125000, 0.000000, 0.000000
3, 0.250000, 0.000000, 0.000000
4, 0.375000, 0.000000, 0.000000
5, 0.500000, 0.000000, 0.000000
6, 0.625000, 0.000000, 0.000000
7, 0.750000, 0.000000, 0.000000
8, 0.875000, 0.000000, 0.000000
9, 1.000000, 0.000000, 0.000000
10, 0.000000, 0.125000, 0.000000
11, 0.125000, 0.125000, 0.000000
12, 0.250000, 0.125000, 0.000000
13, 0.375000, 0.125000, 0.000000
14, 0.500000, 0.125000, 0.000000
15, 0.625000, 0.125000, 0.000000
16, 0.750000, 0.125000, 0.000000
17, 0.875000, 0.125000, 0.000000
18, 1.000000, 0.125000, 0.000000
19, 0.000000, 0.250000, 0.000000
20, 0.125000, 0.250000, 0.000000
** ... 790 like lines cut
*Material, name=STEEL
*Elastic
2.1e11, 0.3
*Element, type=C3D8, elset=BOT
1, 1, 2, 11, 10, 82, 83, 92, 91
2, 2, 3, 12, 11, 83, 84, 93, 92
3, 3, 4, 13, 12, 84, 85, 94, 93
4, 4, 5, 14, 13, 85, 86, 95, 94
5, 5, 6, 15, 14, 86, 87, 96, 95
6, 6, 7, 16, 15, 87, 88, 97, 96
7, 7, 8, 17, 16, 88, 89, 98, 97
8, 8, 9, 18, 17, 89, 90, 99, 98
9, 10, 11, 20, 19, 91, 92, 101, 100
10, 11, 12, 21, 20, 92, 93, 102, 101
11, 12, 13, 22, 21, 93, 94, 103, 102
12, 13, 14, 23, 22, 94, 95, 104, 103
13, 14, 15, 24, 23, 95, 96, 105, 104
14, 15, 16, 25, 24, 96, 97, 106, 105
15, 16, 17, 26, 25, 97, 98, 107, 106
16, 17, 18, 27, 26, 98, 99, 108, 107
17, 19, 20, 29, 28, 100, 101, 110, 109
18, 20, 21, 30, 29, 101, 102, 111, 110
19, 21, 22, 31, 30, 102, 103, 112, 111
20, 22, 23, 32, 31, 103, 104, 113, 112
** ... 236 like lines cut
*Element, type=C3D8, elset=TOP
257, 406, 407, 416, 415, 487, 488, 497, 496
258, 407, 408, 417, 416, 488, 489, 498, 497
259, 408, 409, 418, 417, 489, 490, 499, 498
260, 409, 410, 419, 418, 490, 491, 500, 499
261, 410, 411, 420, 419, 491, 492, 501, 500
262, 411, 412, 421, 420, 492, 493, 502, 501
263, 412, 413, 422, 421, 493, 494, 503, 502
264, 413, 414, 423, 422, 494, 495, 504, 503
265, 415, 416, 425, 424, 496, 497, 506, 505
266, 416, 417, 426, 425, 497, 498, 507, 506
267, 417, 418, 427, 426, 498, 499, 508, 507
268, 418, 419, 428, 427, 499, 500, 509, 508
269, 419, 420, 429, 428, 500, 501, 510, 509
270, 420, 421, 430, 429, 501, 502, 511, 510
271, 421, 422, 431, 430, 502, 503, 512, 511
272, 422, 423, 432, 431, 503, 504, 513, 512
273, 424, 425, 434, 433, 505, 506, 515, 514
274, 425, 426, 435, 434, 506, 507, 516, 515
275, 426, 427, 436, 435, 507, 508, 517, 516
276, 427, 428, 437, 436, 508, 509, 518, 517
** ... 236 like lines cut
*Nset, nset=MASTER_SURF
325, 326, 327, 328, 329, 330, 331, 332, 333, 334, 335, 336, 337, 338, 339, 340, 341, 342, 343, 344, 345, 346, 347, 348, 349, 350, 351, 352, 353, 354, 355, 356, 357, 358, 359, 360, 361, 362, 363, 364, 365, 366, 367, 368, 369, 370, 371, 372, 373, 374, 375, 376, 377, 378, 379, 380, 381, 382, 383, 384, 385, 386, 387, 388, 389, 390, 391, 392, 393, 394, 395, 396, 397, 398, 399, 400, 401, 402, 403, 404, 
*Nset, nset=SLAVE_SURF
406, 407, 408, 409, 410, 411, 412, 413, 414, 415, 416, 417, 418, 419, 420, 421, 422, 423, 424, 425, 426, 427, 428, 429, 430, 431, 432, 433, 434, 435, 436, 437, 438, 439, 440, 441, 442, 443, 444, 445, 446, 447, 448, 449, 450, 451, 452, 453, 454, 455, 456, 457, 458, 459, 460, 461, 462, 463, 464, 465, 466, 467, 468, 469, 470, 471, 472, 473, 474, 475, 476, 477, 478, 479, 480, 481, 482, 483, 484, 485, 
*Nset, nset=BOT_FIX
1, 2, 3, 4, 5, 6, 7, 8, 9, 10, 11, 12, 13, 14, 15, 16, 17, 18, 19, 20, 21, 22, 23, 24, 25, 26, 27, 28, 29, 30, 31, 32, 33, 34, 35, 36, 37, 38, 39, 40, 41, 42, 43, 44, 45, 46, 47, 48, 49, 50, 51, 52, 53, 54, 55, 56, 57, 58, 59, 60, 61, 62, 63, 64, 65, 66, 67, 68, 69, 70, 71, 72, 73, 74, 75, 76, 77, 78, 79, 80, 81
*Nset, nset=TOP_LOAD
730, 731, 732, 733, 734, 735, 736, 737, 738, 739, 740, 741, 742, 743, 744, 745, 746, 747, 748, 749, 750, 751, 752, 753, 754, 755, 756, 757, 758, 759, 760, 761, 762, 763, 764, 765, 766, 767, 768, 769, 770, 771, 772, 773, 774, 775, 776, 777, 778, 779, 780, 781, 782, 783, 784, 785, 786, 787, 788, 789, 790, 791, 792, 793, 794, 795, 796, 797, 798, 799, 800, 801, 802, 803, 804, 805, 806, 807, 808, 809, 
*Contact Pair, master=MASTER_SURF, slave=SLAVE_SURF, penalty=2.0e8, friction=0.2
*Boundary
BOT_FIX,1,3,0.0
*Cload
730, 3, -150.0
731, 3, -150.0
732, 3, -150.0
733, 3, -150.0
734, 3, -150.0
735, 3, -150.0
736, 3, -150.0
737, 3, -150.0
738, 3, -150.0
739, 3, -150.0
740, 3, -150.0
741, 3, -150.0
742, 3, -150.0
743, 3, -150.0
744, 3, -150.0
745, 3, -150.0
746, 3, -150.0
747, 3, -150.0
748, 3, -150.0
749, 3, -150.0
** ... 61 like lines cut
*Step, name=CONTACT_512, nlgeom=YES
*Static
0.05, 1.0, 1e-4, 0.1
*Controls
60, 20, 5, 0.7, 1.2, 1e-4, 0.15
*Output, field, frequency=10
*End Step
