*Heading
** S4 薄板弯曲：16x16 共 256 单元
*Part, name=SHELL_PLATE
*Node
1, 0.000000, 0.000000, 0.000000
2, 0.100000, 0.000000, 0.000000
3, 0.200000, 0.000000, 0.000000
4, 0.300000, 0.000000, 0.000000
5, 0.400000, 0.000000, 0.000000
6, 0.500000, 0.000000, 0.000000
7, 0.600000, 0.000000, 0.000000
8, 0.700000, 0.000000, 0.000000
9, 0.800000, 0.000000, 0.000000
10, 0.900000, 0.000000, 0.000000
11, 1.000000, 0.000000, 0.000000
12, 1.100000, 0.000000, 0.000000
13, 1.200000, 0.000000, 0.000000
14, 1.300000, 0.000000, 0.000000
15, 1.400000, 0.000000, 0.000000
16, 1.500000, 0.000000, 0.000000
17, 1.600000, 0.000000, 0.000000
18, 0.000000, 0.100000, 0.000000
19, 0.100000, 0.100000, 0.000000
20, 0.200000, 0.100000, 0.000000
** ... 269 like lines cut
*Material, name=STEEL
*Elastic
2.1e11, 0.3
*Element, type=S4, elset=PLATE
1, 1, 2, 19, 18
2, 2, 3, 20, 19
3, 3, 4, 21, 20
4, 4, 5, 22, 21
5, 5, 6, 23, 22
6, 6, 7, 24, 23
7, 7, 8, 25, 24
8, 8, 9, 26, 25
9, 9, 10, 27, 26
10, 10, 11, 28, 27
11, 11, 12, 29, 28
12, 12, 13, 30, 29
13, 13, 14, 31, 30
14, 14, 15, 32, 31
15, 15, 16, 33, 32
16, 16, 17, 34, 33
17, 18, 19, 36, 35
18, 19, 20, 37, 36
19, 20, 21, 38, 37
20, 21, 22, 39, 38
** ... 236 like lines cut
*Shell Section, elset=PLATE, material=STEEL
0.01
*End Part
*Nset, nset=LEFT_EDGE
1, 18, 35, 52, 69, 86, 103, 120, 137, 154, 171, 188, 205, 222, 239, 256, 273
*Boundary
LEFT_EDGE,1,6,0.0
*Cload
153, 3, -2.0e4
*Step, name=SHELL_LINEAR
*Static
1.0
*End Step
